5 

C    0.00000   0.00000   0.00000  -0.000000000029024   0.000000000009400  -0.000000000011132
H   -0.88998  -0.62931   0.00000   0.064890985133690   0.045920176617029   0.000000000015966
H    0.00000   0.62931  -0.88998   0.000000000008346  -0.045920176624300   0.064890985033446
H    0.00000   0.62931   0.88998   0.000000000008082  -0.045920176617591  -0.064890985026850
H    0.88998  -0.62931   0.00000  -0.064890985121077   0.045920176615334  -0.000000000011441
